data_image0
_chemical_formula_structural       C5H4O2
_chemical_formula_sum              "C5 H4 O2"
_cell_length_a       15
_cell_length_b       15.5
_cell_length_c       16
_cell_angle_alpha    90
_cell_angle_beta     90
_cell_angle_gamma    90

_space_group_name_H-M_alt    "P 1"
_space_group_IT_number       1

loop_
  _space_group_symop_operation_xyz
  'x, y, z'

loop_
  _atom_site_type_symbol
  _atom_site_label
  _atom_site_symmetry_multiplicity
  _atom_site_fract_x
  _atom_site_fract_y
  _atom_site_fract_z
  _atom_site_occupancy
  C   C1        1.0  0.48577  0.54173  0.49118  1.0000
  C   C2        1.0  0.47943  0.46161  0.45414  1.0000
  C   C3        1.0  0.47379  0.47588  0.36667  1.0000
  C   C4        1.0  0.47702  0.56374  0.35556  1.0000
  C   C5        1.0  0.49326  0.57085  0.57712  1.0000
  H   H1        1.0  0.47903  0.40058  0.48731  1.0000
  H   H2        1.0  0.46806  0.42783  0.31765  1.0000
  H   H3        1.0  0.47495  0.60482  0.30068  1.0000
  H   H4        1.0  0.49716  0.64247  0.58443  1.0000
  O   O1        1.0  0.48428  0.60502  0.43007  1.0000
  O   O2        1.0  0.49526  0.52196  0.63762  1.0000
